Version 4
SHEET 1 2944 1584
WIRE -464 -144 -464 -192
WIRE -464 -48 -464 -64
WIRE -400 -48 -464 -48
WIRE -288 -48 -400 -48
WIRE -192 -48 -208 -48
WIRE -128 -48 -192 -48
WIRE -64 -48 -128 -48
WIRE 96 -48 -64 -48
WIRE -656 -32 -656 -128
WIRE -464 -32 -464 -48
WIRE -400 -32 -400 -48
WIRE -192 -16 -192 -48
WIRE -128 -16 -128 -48
WIRE -64 -16 -64 -48
WIRE -464 64 -464 48
WIRE -400 64 -400 32
WIRE -400 64 -464 64
WIRE -464 80 -464 64
WIRE -192 80 -192 48
WIRE -160 80 -192 80
WIRE -128 80 -128 48
WIRE -128 80 -160 80
WIRE -64 80 -64 48
WIRE -64 80 -128 80
WIRE -160 96 -160 80
WIRE -656 192 -656 48
WIRE 256 208 192 208
WIRE 368 208 320 208
WIRE 1008 208 864 208
WIRE 1104 208 1072 208
WIRE 640 224 512 224
WIRE 752 224 704 224
WIRE -624 256 -624 240
WIRE 1104 256 1104 208
WIRE 1104 256 960 256
WIRE 752 272 752 224
WIRE 752 272 608 272
WIRE 192 288 192 208
WIRE 240 288 192 288
WIRE 368 288 368 208
WIRE 368 288 320 288
WIRE -688 304 -768 304
WIRE -368 320 -368 240
WIRE 1040 320 1040 304
WIRE 688 336 688 320
WIRE 960 336 960 256
WIRE 1008 336 960 336
WIRE 256 352 256 336
WIRE 608 352 608 272
WIRE 656 352 608 352
WIRE 1104 352 1104 256
WIRE 1104 352 1072 352
WIRE 1152 352 1104 352
WIRE 1504 352 1152 352
WIRE 1616 352 1584 352
WIRE 1648 352 1616 352
WIRE -624 368 -624 352
WIRE -528 368 -624 368
WIRE -432 368 -528 368
WIRE -256 368 -304 368
WIRE -192 368 -256 368
WIRE -96 368 -128 368
WIRE 16 368 -96 368
WIRE 192 368 192 288
WIRE 192 368 96 368
WIRE 224 368 192 368
WIRE 752 368 752 272
WIRE 752 368 720 368
WIRE 768 368 752 368
WIRE 864 368 864 208
WIRE 864 368 848 368
WIRE 880 368 864 368
WIRE 976 368 960 368
WIRE 1008 368 976 368
WIRE -768 384 -768 304
WIRE 368 384 368 288
WIRE 368 384 288 384
WIRE 416 384 368 384
WIRE 512 384 512 224
WIRE 512 384 496 384
WIRE 528 384 512 384
WIRE 624 384 608 384
WIRE 656 384 624 384
WIRE -96 400 -96 368
WIRE 224 400 192 400
WIRE 976 400 976 368
WIRE 1040 400 1040 384
WIRE 1344 400 1264 400
WIRE 1456 400 1424 400
WIRE 1616 400 1616 352
WIRE 624 416 624 384
WIRE 688 416 688 400
WIRE 688 416 672 416
WIRE -624 432 -624 368
WIRE -528 432 -528 368
WIRE -256 432 -256 368
WIRE 256 432 256 416
WIRE -368 448 -368 416
WIRE -304 448 -304 368
WIRE -304 448 -368 448
WIRE -368 464 -368 448
WIRE 1344 464 1344 448
WIRE 1152 480 1152 352
WIRE 1168 480 1152 480
WIRE 1264 480 1264 400
WIRE 1264 480 1248 480
WIRE 1312 480 1264 480
WIRE -768 496 -768 384
WIRE 1456 496 1456 400
WIRE 1456 496 1376 496
WIRE 1504 496 1456 496
WIRE 1616 496 1616 464
WIRE 1616 496 1584 496
WIRE 1648 496 1616 496
WIRE -96 512 -96 480
WIRE 1312 512 1280 512
WIRE 976 544 976 464
WIRE 1344 544 1344 528
WIRE -624 560 -624 512
WIRE -528 560 -528 496
WIRE -528 560 -624 560
WIRE -368 560 -368 544
WIRE -368 560 -528 560
WIRE -256 560 -256 496
WIRE -256 560 -368 560
WIRE 192 560 192 400
WIRE 624 560 624 480
WIRE 1280 560 1280 512
WIRE -368 576 -368 560
WIRE -768 624 -768 576
FLAG -768 624 0
FLAG -656 192 0
FLAG -656 -128 5V
FLAG -464 80 0
FLAG -464 -192 5V
FLAG 96 -48 COM
FLAG -768 496 V2
FLAG -160 96 0
FLAG 1280 560 COM
FLAG 1344 448 5V
FLAG 1344 544 0
FLAG 1648 496 Vout+
IOPIN 1648 496 Out
FLAG 1648 352 Vout-
IOPIN 1648 352 Out
FLAG -768 384 V2
FLAG -96 512 COM
FLAG 256 336 5V
FLAG 256 432 0
FLAG 192 560 COM
FLAG -368 240 5V
FLAG -368 576 0
FLAG -624 240 5V
FLAG 1040 400 0
FLAG 1040 304 5V
FLAG -96 368 test
FLAG 976 544 COM
FLAG 688 416 0
FLAG 688 320 5V
FLAG 624 560 COM
SYMBOL voltage -656 -48 R0
WINDOW 123 0 0 Left 2
WINDOW 39 24 124 Left 2
SYMATTR SpiceLine Rser=25
SYMATTR InstName V1
SYMATTR Value 5
SYMBOL voltage -768 480 R0
WINDOW 123 24 124 Left 2
WINDOW 39 24 152 Left 2
SYMATTR Value2 AC 1
SYMATTR SpiceLine Rser=2.4k
SYMATTR InstName V2
SYMATTR Value SINE(2 10m 1k 0 0 0 10000)
SYMBOL res -480 -48 R0
SYMATTR InstName R4
SYMATTR Value 1k
SYMBOL res -480 -160 R0
SYMATTR InstName R5
SYMATTR Value 1k
SYMBOL cap -208 -16 R0
SYMATTR InstName C3
SYMATTR Value 0.1µ
SYMBOL cap -144 -16 R0
SYMATTR InstName C4
SYMATTR Value 10µ
SYMBOL res 1328 416 R270
WINDOW 0 32 56 VTop 2
WINDOW 3 0 56 VBottom 2
SYMATTR InstName R14
SYMATTR Value 50
SYMBOL res 1152 496 R270
WINDOW 0 32 56 VTop 2
WINDOW 3 0 56 VBottom 2
SYMATTR InstName R17
SYMATTR Value 50
SYMBOL cap -416 -32 R0
SYMATTR InstName C1
SYMATTR Value 0.1µ
SYMBOL cap -80 -16 R0
SYMATTR InstName C2
SYMATTR Value 100µ
SYMBOL res -192 -64 R90
WINDOW 0 0 56 VBottom 2
WINDOW 3 32 56 VTop 2
SYMATTR InstName R1
SYMATTR Value 5
SYMBOL res 1488 512 R270
WINDOW 0 32 56 VTop 2
WINDOW 3 0 56 VBottom 2
SYMATTR InstName R2
SYMATTR Value 22
SYMBOL res 1488 368 R270
WINDOW 0 32 56 VTop 2
WINDOW 3 0 56 VBottom 2
SYMATTR InstName R3
SYMATTR Value 22
SYMBOL cap 1600 400 R0
SYMATTR InstName C5
SYMATTR Value 10n
SYMBOL cap -192 384 R270
WINDOW 0 32 32 VTop 2
WINDOW 3 0 32 VBottom 2
SYMATTR InstName C8
SYMATTR Value 10µ
SYMBOL res -112 384 R0
SYMATTR InstName R8
SYMATTR Value 250k
SYMBOL res 224 304 R270
WINDOW 0 32 56 VTop 2
WINDOW 3 0 56 VBottom 2
SYMATTR InstName R10
SYMATTR Value 5k
SYMBOL res 0 384 R270
WINDOW 0 32 56 VTop 2
WINDOW 3 0 56 VBottom 2
SYMATTR InstName R11
SYMATTR Value 90
SYMBOL cap 256 224 R270
WINDOW 0 32 32 VTop 2
WINDOW 3 0 32 VBottom 2
SYMATTR InstName C9
SYMATTR Value 2n
SYMBOL npn -432 320 R0
SYMATTR InstName Q1
SYMATTR Value BC550
SYMBOL res -384 448 R0
SYMATTR InstName R12
SYMATTR Value 200
SYMBOL npn -688 256 R0
SYMATTR InstName Q2
SYMATTR Value BC550
SYMBOL cap -272 432 R0
SYMATTR InstName C10
SYMATTR Value 470n
SYMBOL res -640 416 R0
SYMATTR InstName R9
SYMATTR Value 5k
SYMBOL Opamps\\LT6201 256 384 R0
SYMATTR InstName U2
SYMBOL Opamps\\LTC6242 1040 352 R0
SYMATTR InstName U1
SYMBOL Opamps\\LTC6242 1344 496 R0
SYMATTR InstName U6
SYMBOL cap -544 432 R0
SYMATTR InstName C11
SYMATTR Value 1n
SYMBOL res 864 352 R90
WINDOW 0 0 56 VBottom 2
WINDOW 3 32 56 VTop 2
SYMATTR InstName R6
SYMATTR Value 1.4k
SYMBOL res 976 352 R90
WINDOW 0 0 56 VBottom 2
WINDOW 3 32 56 VTop 2
SYMATTR InstName R7
SYMATTR Value 4.53k
SYMBOL cap 960 400 R0
SYMATTR InstName C6
SYMATTR Value 1n
SYMBOL cap 1072 192 R90
WINDOW 0 0 32 VBottom 2
WINDOW 3 32 32 VTop 2
SYMATTR InstName C7
SYMATTR Value 33n
SYMBOL Opamps\\LTC6242 688 368 R0
SYMATTR InstName U4
SYMBOL res 512 368 R90
WINDOW 0 0 56 VBottom 2
WINDOW 3 32 56 VTop 2
SYMATTR InstName R13
SYMATTR Value 8.87k
SYMBOL res 624 368 R90
WINDOW 0 0 56 VBottom 2
WINDOW 3 32 56 VTop 2
SYMATTR InstName R15
SYMATTR Value 26.1k
SYMBOL cap 608 416 R0
SYMATTR InstName C12
SYMATTR Value 1n
SYMBOL cap 704 208 R90
WINDOW 0 0 32 VBottom 2
WINDOW 3 32 32 VTop 2
SYMATTR InstName C13
SYMATTR Value 2n
TEXT 424 -160 Left 2 !.tran 0 0.15 0.1
TEXT 176 -56 Left 2 !;noise V(vout+,vout-) V2 dec 100 10 48k
TEXT 208 64 Left 2 !;ac dec 100 10 48k
TEXT 464 112 Left 1 !.MODEL BC550 npn IS =1.8E-14 ISE=5.0E-14 NF =.9955 NE =1.46 BF =400\n+BR =35.5 IKF=.14 IKR=.03 ISC=1.72E-13 NC =1.27 NR =1.005 RB =.56 RE =.6\n+RC =.25 VAF=80 VAR=12.5 CJE=13E-12 TF =.64E-9 CJC=4E-12 TR =50.72E-9\n+VJC=.54 MJC=.33
