Version 4
SHEET 1 1624 1584
WIRE -464 -144 -464 -192
WIRE -256 -64 -256 -96
WIRE -464 -48 -464 -64
WIRE -400 -48 -464 -48
WIRE -288 -48 -400 -48
WIRE -656 -32 -656 -128
WIRE -464 -32 -464 -48
WIRE -400 -32 -400 -48
WIRE -192 -32 -224 -32
WIRE -176 -32 -192 -32
WIRE -80 -32 -96 -32
WIRE -16 -32 -80 -32
WIRE 48 -32 -16 -32
WIRE 208 -32 48 -32
WIRE -288 -16 -320 -16
WIRE -80 0 -80 -32
WIRE -16 0 -16 -32
WIRE 48 0 48 -32
WIRE -256 16 -256 0
WIRE -464 64 -464 48
WIRE -400 64 -400 32
WIRE -400 64 -464 64
WIRE -320 64 -320 -16
WIRE -192 64 -192 -32
WIRE -192 64 -320 64
WIRE -464 80 -464 64
WIRE -80 96 -80 64
WIRE -48 96 -80 96
WIRE -16 96 -16 64
WIRE -16 96 -48 96
WIRE 48 96 48 64
WIRE 48 96 -16 96
WIRE -48 112 -48 96
WIRE -656 192 -656 48
WIRE 400 192 320 192
WIRE 528 192 464 192
WIRE 320 272 320 192
WIRE 400 272 320 272
WIRE 528 272 528 192
WIRE 528 272 480 272
WIRE -160 288 -160 272
WIRE 32 288 -112 288
WIRE -48 336 -48 320
WIRE 208 336 192 336
WIRE 320 336 320 272
WIRE 320 336 288 336
WIRE 352 336 320 336
WIRE -112 352 -112 288
WIRE -80 352 -112 352
WIRE 528 352 528 272
WIRE 528 352 416 352
WIRE 32 368 32 288
WIRE 32 368 -16 368
WIRE 64 368 32 368
WIRE 96 368 64 368
WIRE 192 368 192 336
WIRE 192 368 160 368
WIRE 352 368 320 368
WIRE -304 384 -352 384
WIRE -160 384 -160 352
WIRE -160 384 -224 384
WIRE -80 384 -160 384
WIRE 528 384 528 352
WIRE 624 384 528 384
WIRE 1024 384 624 384
WIRE 1136 384 1104 384
WIRE 1168 384 1136 384
WIRE -160 400 -160 384
WIRE 192 400 192 368
WIRE -48 416 -48 400
WIRE 1136 448 1136 384
WIRE -352 496 -352 384
WIRE 848 496 784 496
WIRE 960 496 928 496
WIRE 192 528 192 480
WIRE 320 528 320 368
WIRE -352 544 -352 496
WIRE 864 560 864 544
WIRE 624 576 624 384
WIRE 656 576 624 576
WIRE 784 576 784 496
WIRE 784 576 736 576
WIRE 832 576 784 576
WIRE 960 592 960 496
WIRE 960 592 896 592
WIRE 1024 592 960 592
WIRE 1136 592 1136 512
WIRE 1136 592 1104 592
WIRE 1168 592 1136 592
WIRE 832 608 800 608
WIRE 864 640 864 624
WIRE -352 656 -352 624
WIRE 800 656 800 608
FLAG -352 656 0
FLAG -656 192 0
FLAG -656 -128 5V
FLAG -464 80 0
FLAG -464 -192 5V
FLAG -256 16 5V
FLAG -256 -96 0
FLAG 208 -32 COM
FLAG -352 496 V2
FLAG -48 112 0
FLAG 192 528 COM
FLAG -48 416 0
FLAG -48 320 5V
FLAG 384 320 5V
FLAG 384 384 0
FLAG 320 528 COM
FLAG 800 656 COM
FLAG 864 544 5V
FLAG 864 640 0
FLAG 1168 592 Vout+
IOPIN 1168 592 Out
FLAG 1168 384 Vout-
IOPIN 1168 384 Out
FLAG 64 368 test
FLAG -160 272 5V
FLAG -352 384 V2
SYMBOL voltage -656 -48 R0
WINDOW 123 0 0 Left 2
WINDOW 39 0 0 Left 2
SYMATTR InstName V1
SYMATTR Value 5
SYMBOL voltage -352 528 R0
WINDOW 123 24 124 Left 2
WINDOW 39 24 152 Left 2
SYMATTR Value2 AC 1
SYMATTR SpiceLine Rser=2.4k
SYMATTR InstName V2
SYMATTR Value SINE(3 10m 1k 0 0 0 10000)
SYMBOL res -480 -48 R0
SYMATTR InstName R4
SYMATTR Value 1k
SYMBOL res -480 -160 R0
SYMATTR InstName R5
SYMATTR Value 1k
SYMBOL cap -96 0 R0
SYMATTR InstName C3
SYMATTR Value 0.1µ
SYMBOL cap -32 0 R0
SYMATTR InstName C4
SYMATTR Value 10µ
SYMBOL cap 96 384 R270
WINDOW 0 32 32 VTop 2
WINDOW 3 0 32 VBottom 2
SYMATTR InstName C7
SYMATTR Value 100µ
SYMBOL res 176 384 R0
SYMATTR InstName R13
SYMATTR Value 100
SYMBOL res 384 288 R270
WINDOW 0 32 56 VTop 2
WINDOW 3 0 56 VBottom 2
SYMATTR InstName R15
SYMATTR Value 50k
SYMBOL res 192 352 R270
WINDOW 0 32 56 VTop 2
WINDOW 3 0 56 VBottom 2
SYMATTR InstName R16
SYMATTR Value 1k
SYMBOL res 832 512 R270
WINDOW 0 32 56 VTop 2
WINDOW 3 0 56 VBottom 2
SYMATTR InstName R14
SYMATTR Value 500
SYMBOL res 640 592 R270
WINDOW 0 32 56 VTop 2
WINDOW 3 0 56 VBottom 2
SYMATTR InstName R17
SYMATTR Value 500
SYMBOL Opamps\\LTC6242 -48 368 R0
SYMATTR InstName U9
SYMBOL Opamps\\LTC6242 384 352 R0
SYMATTR InstName U10
SYMBOL Opamps\\LTC6242 864 592 R0
SYMATTR InstName U11
SYMBOL cap 400 208 R270
WINDOW 0 32 32 VTop 2
WINDOW 3 0 32 VBottom 2
SYMATTR InstName C11
SYMATTR Value 220p
SYMBOL res -320 400 R270
WINDOW 0 32 56 VTop 2
WINDOW 3 0 56 VBottom 2
SYMATTR InstName R22
SYMATTR Value 470
SYMBOL cap -144 352 R180
WINDOW 0 24 56 Left 2
WINDOW 3 24 8 Left 2
SYMATTR InstName C12
SYMATTR Value 1n
SYMBOL Opamps\\LTC6242 -256 -32 M180
SYMATTR InstName U2
SYMBOL cap -416 -32 R0
SYMATTR InstName C1
SYMATTR Value 0.1µ
SYMBOL cap 32 0 R0
SYMATTR InstName C2
SYMATTR Value 100µ
SYMBOL res -80 -48 R90
WINDOW 0 0 56 VBottom 2
WINDOW 3 32 56 VTop 2
SYMATTR InstName R1
SYMATTR Value 10
SYMBOL res 1008 608 R270
WINDOW 0 32 56 VTop 2
WINDOW 3 0 56 VBottom 2
SYMATTR InstName R2
SYMATTR Value 22
SYMBOL res 1008 400 R270
WINDOW 0 32 56 VTop 2
WINDOW 3 0 56 VBottom 2
SYMATTR InstName R3
SYMATTR Value 22
SYMBOL cap 1120 448 R0
SYMATTR InstName C5
SYMATTR Value 10n
TEXT 424 -160 Left 2 !;tran 0 0.2 0.1
TEXT 176 -56 Left 2 !;noise V(vout+,vout-)  V2 dec 100 10 48k
TEXT 208 64 Left 2 !.ac dec 100 10 48k
